[General]
network = firstproject.simulations.Network 
record-eventlog = true
  

sim-time-limit = 2min
**.Client.nuntepapps = 1
**.Client.tcpApp[0].typename = “TCPBasicClientApp*
**.Client.tcpApp[0].connectAddress = "Server"
**.Client.tcpApp[0].connectPort = 80
**.Client.tcpApp[0].thinkTime = 0s
**.Client.tcpApp[0].idlenInterval = 0s

**.Server.nuntepapps = 1
**.Server.tcpApp[0].typename = "TCPEchoApp"
**.Server.tcpApp[0].localport = 80

**.ppp[*].queueType = "DropTailQueue"
**.ppp[*].queue.frameCapacity = 10

  
 
